Version 4
SHEET 1 2432 820
WIRE -128 -128 -256 -128
WIRE 0 -128 -128 -128
WIRE 208 -128 0 -128
WIRE -256 -112 -256 -128
WIRE -128 -112 -128 -128
WIRE 0 -112 0 -128
WIRE 208 -64 208 -128
WIRE 0 -32 0 -48
WIRE -256 -16 -256 -32
WIRE -128 0 -128 -32
WIRE 64 0 -128 0
WIRE 432 0 352 0
WIRE 528 0 432 0
WIRE 640 0 528 0
WIRE 432 16 432 0
WIRE 528 16 528 0
WIRE 640 16 640 0
WIRE 64 96 32 96
WIRE 432 112 432 80
WIRE 528 112 528 80
WIRE 640 112 640 96
WIRE 32 192 32 96
WIRE 64 192 32 192
WIRE 368 192 352 192
WIRE 464 192 448 192
WIRE 32 288 32 192
WIRE 64 288 32 288
WIRE -16 384 -48 384
WIRE 64 384 48 384
WIRE 368 384 352 384
WIRE 464 384 448 384
WIRE 208 464 208 448
FLAG -48 384 0
FLAG 0 -32 0
FLAG 432 112 0
FLAG 528 112 0
FLAG 464 384 0
FLAG 464 192 0
FLAG -256 -16 0
FLAG 208 464 0
FLAG 640 112 0
FLAG -256 -128 IN
FLAG 640 0 OUT
SYMBOL cap 48 368 R90
WINDOW 0 0 32 VBottom 2
WINDOW 3 32 32 VTop 2
SYMATTR InstName C1
SYMATTR Value 1500p
SYMBOL res 352 400 R270
WINDOW 0 32 56 VTop 2
WINDOW 3 0 56 VBottom 2
SYMATTR InstName R1
SYMATTR Value 90.9K
SYMBOL res -144 -128 R0
SYMATTR InstName R2
SYMATTR Value 510K
SYMBOL cap -16 -112 R0
SYMATTR InstName C2
SYMATTR Value 10µ
SYMBOL cap 416 16 R0
SYMATTR InstName C3
SYMATTR Value 100µ
SYMBOL polcap 512 16 R0
WINDOW 3 24 56 Left 2
SYMATTR Value 330µ
SYMATTR InstName C4
SYMATTR Description Capacitor
SYMATTR Type cap
SYMBOL res 352 208 R270
WINDOW 0 32 56 VTop 2
WINDOW 3 0 56 VBottom 2
SYMATTR InstName R3
SYMATTR Value 9.09K
SYMBOL voltage -256 -128 R0
WINDOW 123 0 0 Left 2
WINDOW 39 0 0 Left 2
SYMATTR InstName V1
SYMATTR Value 5
SYMBOL PowerProducts\\LTM8026 208 192 R0
SYMATTR InstName U1
SYMBOL res 624 0 R0
SYMATTR InstName Rload
SYMATTR Value 0.5
TEXT 576 408 Left 2 !.tran 1.5m startup
TEXT 208 -136 Bottom 2 ;LTM8026 - 36VIN, 5A CVCC Step-Down µModule Regulator\nCVCC Step-Down uModule Regulator\nInput: 6V to 36V      Output: 2.5V @ 5A
TEXT -376 480 Left 2 ;Note:\n  If the simulation model is not found please update with the "Sync Release" command from the "Tools" menu.\n  It remains the customer's responsibility to verify proper and reliable operation in the actual application.\n  Component substitution and printed circuit board layout may significantly affect circuit performance or reliability.\n  Contact your local sales representative for assistance. This circuit is distributed to customers only for use with LTC parts.\n  Copyright © 2012 Linear Technology Inc. All rights reserved.
